cdfs/cdf_cigre-32.txt
TAPE
 20/03/12 LASEE/SEL/EESC/USP   100.0  2012 S CIGRE-32 TEST SYSTEM
BUS DATA FOLLOWS                     41 ITEMS
4072 Bus  1 -- PV  4  1  2  1.100   0.00   2000.0    500.0  1332.97     0.0          1.100  1000.0  -300.0     0.0     0.0 4072    1
4071 Bus  2 -- PV  4  1  2  1.100   0.00    300.0    100.0   469.98     0.0          1.100   250.0   -50.0     0.0     0.0 4071    2
4011 Bus  3 -- SL  1  1  3  1.100   0.00      0.0      0.0   437.39     0.0          1.100   500.0  -100.0     0.0     0.0 4011    3
4012 Bus  4 -- PV  1  1  2  1.100   0.00      0.0      0.0   600.58     0.0          1.100   400.0  -160.0     0.0     0.0 4012    4
4021 Bus  5 -- PV  1  1  2  1.100   0.00      0.0      0.0   281.99     0.0          1.100   150.0   -30.0     0.0     0.0 4021    5
4031 Bus  6 -- PV  1  1  2  1.100   0.00      0.0      0.0   328.99     0.0          1.100   175.0   -40.0     0.0     0.0 4031    6
4042 Bus  7 -- PV  2  1  2  1.100   0.00      0.0      0.0   657.98     0.0          1.100   350.0     0.0     0.0     0.0 4042    7
4041 Bus  8 -- PV  2  1  2  1.100   0.00      0.0      0.0   281.99     0.0          1.100   300.0  -200.0     0.0     0.0 4041    8
4062 Bus  9 -- PV  3  1  2  1.100   0.00      0.0      0.0   563.98     0.0          1.100   300.0     0.0     0.0     0.0 4062    9
4063 Bus 10 -- PV  3  1  2  1.100   0.00      0.0      0.0  1127.97     0.0          1.100   600.0     0.0     0.0     0.0 4063   10
4051 Bus 11 -- PV  2  1  2  1.000   0.00      0.0      0.0   657.98     0.0          1.100   350.0     0.0     0.0     0.0 4051   11
4047 Bus 12 -- PV  2  1  2  1.100   0.00      0.0      0.0   769.58     0.0          1.100   600.0     0.0     0.0     0.0 4047   12
2032 Bus 13 -- PV  1  2  2  1.100   0.00    200.0     50.0   798.98     0.0          1.100   425.0   -80.0     0.0     0.0 2032   13
1013 Bus 14 -- PV  1  3  2  1.100   0.00    100.0     40.0   543.18     0.0          1.100   300.0   -50.0     0.0     0.0 1013   14
1012 Bus 15 -- PV  1  3  2  1.100   0.00    300.0    100.0   751.98     0.0          1.100   400.0   -80.0     0.0     0.0 1012   15
1014 Bus 16 -- PV  1  3  2  1.100   0.00      0.0      0.0   421.09     0.0          1.100   350.0  -100.0     0.0     0.0 1014   16
1022 Bus 17 -- PV  1  4  2  1.100   0.00    280.0     95.0   234.99     0.0          1.100   125.0   -25.0     0.0     0.0 1022   17
1021 Bus 18 -- PV  1  4  2  1.100   0.00      0.0      0.0   563.98     0.0          1.100   300.0  -160.0     0.0     0.0 1021   18
1043 Bus 19 -- PV  2  2  2  1.100   0.00    230.0    100.0   187.99     0.0          1.100   100.0   -20.0     0.0     0.0 1043   19
1042 Bus 20 -- PV  2  2  2  1.100   0.00    300.0     80.0   375.99     0.0          1.100   200.0   -40.0     0.0     0.0 1042   20
4022 Bus 21 -- PQ  1  1  0  1.000   0.00      0.0      0.0      0.0     0.0            0.0     0.0     0.0     0.0     0.0    0   21
4032 Bus 22 -- PQ  1  1  0  1.000   0.00      0.0      0.0      0.0     0.0            0.0     0.0     0.0     0.0     0.0    0   22
4043 Bus 23 -- PQ  2  1  0  1.000   0.00      0.0      0.0      0.0     0.0            0.0     0.0     0.0     0.0     0.0    0   23
4044 Bus 24 -- PQ  2  1  0  1.000   0.00      0.0      0.0      0.0     0.0            0.0     0.0     0.0     0.0     0.0    0   24
4045 Bus 25 -- PQ  2  1  0  1.000   0.00      0.0      0.0      0.0     0.0            0.0     0.0     0.0     0.0     0.0    0   25
4046 Bus 26 -- PQ  2  1  0  1.000   0.00      0.0      0.0      0.0     0.0            0.0     0.0     0.0     0.0     0.0    0   26
4061 Bus 27 -- PQ  3  1  0  1.000   0.00      0.0      0.0      0.0     0.0            0.0     0.0     0.0     0.0     0.0    0   27
2031 Bus 28 -- PQ  1  2  0  1.000   0.00    100.0     30.0      0.0     0.0            0.0     0.0     0.0     0.0     0.0    0   28
1011 Bus 29 -- PQ  1  3  0  1.000   0.00    200.0     80.0      0.0     0.0            0.0     0.0     0.0     0.0     0.0    0   29
1041 Bus 30 -- PQ  2  2  0  1.000   0.00    600.0    200.0      0.0     0.0            0.0     0.0     0.0     0.0     0.0    0   30
1044 Bus 31 -- PQ  2  2  0  1.000   0.00    800.0    300.0      0.0     0.0            0.0     0.0     0.0     0.0     0.0    0   31
1045 Bus 32 -- PQ  2  2  0  1.000   0.00    700.0    250.0      0.0     0.0            0.0     0.0     0.0     0.0     0.0    0   32
  42 Bus 33 -- PQ  2  3  0  1.000   0.00    400.0    125.7      0.0     0.0            0.0     0.0     0.0     0.0     0.0    0   33
  41 Bus 34 -- PQ  2  3  0  1.000   0.00    540.0    128.8      0.0     0.0            0.0     0.0     0.0     0.0     0.0    0   34
  62 Bus 35 -- PQ  3  3  0  1.000   0.00    300.0    80.02      0.0     0.0            0.0     0.0     0.0     0.0     0.0    0   35
  63 Bus 36 -- PQ  3  3  0  1.000   0.00    590.0    256.2      0.0     0.0            0.0     0.0     0.0     0.0     0.0    0   36
  51 Bus 37 -- PQ  2  3  0  1.000   0.00    800.0    253.2      0.0     0.0            0.0     0.0     0.0     0.0     0.0    0   37
  47 Bus 38 -- PQ  2  3  0  1.000   0.00    100.0    45.19      0.0     0.0            0.0     0.0     0.0     0.0     0.0    0   38
  43 Bus 39 -- PQ  2  3  0  1.000   0.00    900.0    238.8      0.0     0.0            0.0     0.0     0.0     0.0     0.0    0   39
  46 Bus 40 -- PQ  2  3  0  1.000   0.00    700.0    193.7      0.0     0.0            0.0     0.0     0.0     0.0     0.0    0   40
  61 Bus 41 -- PQ  3  3  0  1.000   0.00    500.0    112.3      0.0     0.0            0.0     0.0     0.0     0.0     0.0    0   41
-999
BRANCH DATA FOLLOWS                  52 ITEMS
4011 4012  1  1 1 0     0.001     0.008       0.4     0     0     0    0 0     0.0     0.0    0.0    0.0    0.0     0.0    0.0     1
4011 4021  1  1 1 0     0.006      0.06      3.58     0     0     0    0 0     0.0     0.0    0.0    0.0    0.0     0.0    0.0     2
4011 4022  1  1 1 0     0.004      0.04      2.39     0     0     0    0 0     0.0     0.0    0.0    0.0    0.0     0.0    0.0     3
4011 4071  1  1 1 0     0.005     0.045      2.79     0     0     0    0 0     0.0     0.0    0.0    0.0    0.0     0.0    0.0     4
4012 4022  1  1 1 0     0.004     0.035      2.09     0     0     0    0 0     0.0     0.0    0.0    0.0    0.0     0.0    0.0     5
4012 4071  1  1 1 0     0.005      0.05      2.98     0     0     0    0 0     0.0     0.0    0.0    0.0    0.0     0.0    0.0     6
4021 4032  1  1 1 0     0.004      0.04      2.39     0     0     0    0 0     0.0     0.0    0.0    0.0    0.0     0.0    0.0     7
4021 4042  1  1 1 0      0.01      0.06      5.97     0     0     0    0 0     0.0     0.0    0.0    0.0    0.0     0.0    0.0     8
4031 4022  1  1 1 0     0.002      0.02       1.2     0     0     0    0 0     0.0     0.0    0.0    0.0    0.0     0.0    0.0     9
4031 4032  1  1 1 0     0.001      0.01       0.6     0     0     0    0 0     0.0     0.0    0.0    0.0    0.0     0.0    0.0    10
4031 4041  1  1 1 0     0.003      0.02      2.39     0     0     0    0 0     0.0     0.0    0.0    0.0    0.0     0.0    0.0    11
4042 4032  1  1 1 0      0.01      0.04      3.98     0     0     0    0 0     0.0     0.0    0.0    0.0    0.0     0.0    0.0    12
4032 4044  1  1 1 0     0.006      0.05      4.77     0     0     0    0 0     0.0     0.0    0.0    0.0    0.0     0.0    0.0    13
4041 4044  1  1 1 0     0.003      0.03      1.79     0     0     0    0 0     0.0     0.0    0.0    0.0    0.0     0.0    0.0    14
4041 4061  1  1 1 0     0.006     0.045      2.59     0     0     0    0 0     0.0     0.0    0.0    0.0    0.0     0.0    0.0    15
4042 4043  1  1 1 0     0.002     0.015      0.99     0     0     0    0 0     0.0     0.0    0.0    0.0    0.0     0.0    0.0    16
4042 4044  1  1 1 0     0.002      0.02      1.19     0     0     0    0 0     0.0     0.0    0.0    0.0    0.0     0.0    0.0    17
4043 4044  1  1 1 0     0.001      0.01       0.6     0     0     0    0 0     0.0     0.0    0.0    0.0    0.0     0.0    0.0    18
4043 4046  1  1 1 0     0.001      0.01       0.6     0     0     0    0 0     0.0     0.0    0.0    0.0    0.0     0.0    0.0    19
4043 4047  1  1 1 0     0.002      0.02      1.19     0     0     0    0 0     0.0     0.0    0.0    0.0    0.0     0.0    0.0    20
4044 4045  1  1 1 0     0.001      0.01       0.6     0     0     0    0 0     0.0     0.0    0.0    0.0    0.0     0.0    0.0    21
4045 4051  1  1 1 0     0.002      0.02       1.2     0     0     0    0 0     0.0     0.0    0.0    0.0    0.0     0.0    0.0    22
4045 4062  1  1 1 0     0.011      0.08      4.77     0     0     0    0 0     0.0     0.0    0.0    0.0    0.0     0.0    0.0    23
4046 4047  1  1 1 0     0.001     0.015      0.99     0     0     0    0 0     0.0     0.0    0.0    0.0    0.0     0.0    0.0    24
4061 4062  1  1 1 0    0.0015     0.015       0.9     0     0     0    0 0     0.0     0.0    0.0    0.0    0.0     0.0    0.0    25
4062 4063  1  1 1 0    0.0015     0.015       0.9     0     0     0    0 0     0.0     0.0    0.0    0.0    0.0     0.0    0.0    26
4071 4072  1  1 1 0    0.0015     0.015       3.0     0     0     0    0 0     0.0     0.0    0.0    0.0    0.0     0.0    0.0    27
2031 2032  1  1 1 0   0.00599     0.045      0.05     0     0     0    0 0     0.0     0.0    0.0    0.0    0.0     0.0    0.0    28
1011 1013  1  1 1 0   0.00503   0.03491      0.13     0     0     0    0 0     0.0     0.0    0.0    0.0    0.0     0.0    0.0    29
1012 1014  1  1 1 0    0.0071   0.04497      0.17     0     0     0    0 0     0.0     0.0    0.0    0.0    0.0     0.0    0.0    30
1013 1014  1  1 1 0   0.00349   0.02503       0.1     0     0     0    0 0     0.0     0.0    0.0    0.0    0.0     0.0    0.0    31
1021 1022  1  1 1 0   0.01503       0.1      0.29     0     0     0    0 0     0.0     0.0    0.0    0.0    0.0     0.0    0.0    32
1041 1043  1  1 1 0   0.00503      0.03      0.12     0     0     0    0 0     0.0     0.0    0.0    0.0    0.0     0.0    0.0    33
1041 1045  1  1 1 0   0.00751      0.06      0.24     0     0     0    0 0     0.0     0.0    0.0    0.0    0.0     0.0    0.0    34
1042 1044  1  1 1 0   0.01899      0.14      0.57     0     0     0    0 0     0.0     0.0    0.0    0.0    0.0     0.0    0.0    35
1042 1045  1  1 1 0      0.05       0.3      1.13     0     0     0    0 0     0.0     0.0    0.0    0.0    0.0     0.0    0.0    36
1043 1044  1  1 1 0   0.00503      0.04      0.15     0     0     0    0 0     0.0     0.0    0.0    0.0    0.0     0.0    0.0    37
1011 4011  1  1 1 2       0.0     0.008       0.0     0     0     0 1011 0   1.000     0.0  0.840  1.100  0.0081  1.020  1.100    38
1012 4012  1  1 1 2       0.0     0.008       0.0     0     0     0 1012 0   1.000     0.0  0.840  1.100  0.0081  1.020  1.100    39
1022 4022  1  1 1 2       0.0     0.012       0.0     0     0     0 1022 0   1.000     0.0  0.840  1.100  0.0081  1.020  1.100    40
1044 4044  1  1 1 2       0.0     0.005       0.0     0     0     0 1044 0   1.000     0.0  0.840  1.100  0.0081  1.020  1.100    41
1045 4045  1  1 1 2       0.0     0.005       0.0     0     0     0 1045 0   1.000     0.0  0.840  1.100  0.0081  1.020  1.100    42
2031 4031  1  1 1 2       0.0     0.012       0.0     0     0     0 2031 0   1.000     0.0  0.840  1.100  0.0081  1.020  1.100    43
4042   42  1  1 1 2       0.0     0.013       0.0     0     0     0   42 0   1.000     0.0  0.900  1.050  0.0047  0.970  1.100    44
4041   41  1  1 1 2       0.0      0.01       0.0     0     0     0   41 0   1.000     0.0  0.900  1.050  0.0047  0.970  1.100    45
4047   47  1  1 1 2       0.0      0.04       0.0     0     0     0   47 0   1.000     0.0  0.900  1.050  0.0047  0.970  1.100    46
4043   43  1  1 1 2       0.0     0.007       0.0     0     0     0   43 0   1.000     0.0  0.900  1.050  0.0047  0.970  1.100    47
4046   46  1  1 1 2       0.0      0.01       0.0     0     0     0   46 0   1.000     0.0  0.900  1.050  0.0047  0.970  1.100    48
4051   51  1  1 1 2       0.0     0.007       0.0     0     0     0   51 0   1.000     0.0  0.900  1.050  0.0047  0.970  1.100    49
4061   61  1  1 1 2       0.0     0.013       0.0     0     0     0   61 0   1.000     0.0  0.900  1.050  0.0047  0.970  1.100    50
4062   62  1  1 1 2       0.0      0.02       0.0     0     0     0   62 0   1.000     0.0  0.900  1.050  0.0047  0.970  1.100    51
4063   63  1  1 1 2       0.0      0.01       0.0     0     0     0   63 0   1.000     0.0  0.900  1.050  0.0047  0.970  1.100    52
-999
LOSS ZONES FOLLOWS                    1 ITEMS
  1 CIGRE-32
-99
INTERCHANGE DATA FOLLOWS              0 ITEMS
-9
TIE LINES FOLLOWS                     0 ITEMS
-999
END OF DATA